Simulacoes/118/06 - EE/ieee118_6_0600_EE.txt
================================================================================= 
=== UFF - Doutorado em Computação - Aplicaçoes em Sistemas de Potencia        === 
=== ESTIMADOR DE ESTADO MÍNIMOS QUADRADOS PONDERADOS INCLUINDO MEDIDAS DE PMU === 
=== Desenvolvido por: Rui Menezes de Moraes - 2009                            === 
================================================================================= 
Arquivo de medidores:          F:\Documents\Uff\Artigos\SimSEP\VERSAO WELDAN V2\Codigos\Med\ieee118_6_0600.med
Arquivo do sistema:            F:\Documents\Uff\Artigos\SimSEP\VERSAO WELDAN V2\Codigos\Carga\ieee118_6_0600.txt
Tolerância entre iteraçoes:     1.00e-04
Limite de iteraçoes:           100

--- DADOS DA REDE --------------------------------------------------------------- 
Data do caso:                  08/25/93
Origem:                        UW ARCHIVE          
MVA base:                      100
Ano:                           1961
Estação:                       W
Identificação:                 IEEE 118 Bus Test Case
Número de barras:              118 
Número de ramos:               186 
Referência na barra:           69

--- TELEMEDIDAS ------------------------------------------------------------------
    Tipo 1 = Fluxo de potencia ativa        Tipo  6 = Módulo da tensão            
    Tipo 2 = Injeção de potencia ativa      Tipo  7 = Corrente de ramo (real)     
    Tipo 3 = Ângulo de fase da tensão       Tipo  8 = Corrente de ramo (imag)     
    Tipo 4 = Fluxo de potencia reativa      Tipo  9 = Injeção de corrente (real)  
    Tipo 5 = Injeção de potencia reativa    Tipo 10 = Injeção de corrente (imag)  
----------------------------------------------------------------------------------
   N    D    P TP  PN ST   Exa   FS       DP      V_Ref      V_Med          E(%) 
----------------------------------------------------------------------------------
   1    0    1  6   0  0 0.015 01.1  0.00481   +0.96168   +0.95898     -0.280759 
   2    0    2  6   0  0 0.015 01.1  0.00488   +0.97512   +0.96456     -1.082944 
   3    0    3  6   0  0 0.015 01.1  0.00486   +0.97233   +0.98098     +0.889616 
   4    0    4  6   0  0 0.015 01.1  0.00499   +0.99800   +0.98701     -1.101202 
   5    0    5  6   0  0 0.015 01.1  0.00500   +1.00057   +1.00021     -0.035979 
   6    0    6  6   0  0 0.015 01.1  0.00495   +0.99000   +0.99768     +0.775758 
   7    0    7  6   0  0 0.015 01.1  0.00495   +0.98929   +1.00284     +1.369669 
   8    0    8  6   0  0 0.015 01.1  0.00507   +1.01500   +1.02847     +1.327094 
   9    0    9  6   0  0 0.015 01.1  0.00525   +1.05004   +1.04443     -0.534265 
  10    0   10  6   0  0 0.015 01.1  0.00525   +1.05000   +1.06336     +1.272381 
  11    0   11  6   0  0 0.015 01.1  0.00493   +0.98681   +0.99057     +0.381026 
  12    0   12  6   0  0 0.015 01.1  0.00495   +0.99000   +0.99430     +0.434343 
  13    0   13  6   0  0 0.015 01.1  0.00486   +0.97287   +0.97612     +0.334063 
  14    0   14  6   0  0 0.015 01.1  0.00492   +0.98383   +0.97049     -1.355925 
  15    0   15  6   0  0 0.015 01.1  0.00486   +0.97125   +0.97641     +0.531274 
  16    0   16  6   0  0 0.015 01.1  0.00493   +0.98550   +0.99928     +1.398275 
  17    0   17  6   0  0 0.015 01.1  0.00497   +0.99472   +1.00737     +1.271715 
  18    0   18  6   0  0 0.015 01.1  0.00487   +0.97300   +0.97056     -0.250771 
  19    0   19  6   0  0 0.015 01.1  0.00483   +0.96616   +0.96100     -0.534073 
  20    0   20  6   0  0 0.015 01.1  0.00483   +0.96597   +0.95508     -1.127364 
  21    0   21  6   0  0 0.015 01.1  0.00484   +0.96858   +0.97580     +0.745421 
  22    0   22  6   0  0 0.015 01.1  0.00489   +0.97826   +0.97291     -0.546889 
  23    0   23  6   0  0 0.015 01.1  0.00500   +0.99939   +0.98528     -1.411861 
  24    0   24  6   0  0 0.015 01.1  0.00496   +0.99200   +0.99884     +0.689516 
  25    0   25  6   0  0 0.015 01.1  0.00525   +1.05000   +1.05576     +0.548571 
  26    0   26  6   0  0 0.015 01.1  0.00507   +1.01500   +1.01544     +0.043350 
  27    0   27  6   0  0 0.015 01.1  0.00484   +0.96800   +0.97694     +0.923554 
  28    0   28  6   0  0 0.015 01.1  0.00481   +0.96305   +0.97447     +1.185816 
  29    0   29  6   0  0 0.015 01.1  0.00482   +0.96393   +0.97817     +1.477286 
  30    0   30  6   0  0 0.015 01.1  0.00494   +0.98857   +0.98574     -0.286272 
  31    0   31  6   0  0 0.015 01.1  0.00483   +0.96700   +0.95940     -0.785936 
  32    0   32  6   0  0 0.015 01.1  0.00483   +0.96695   +0.95642     -1.088991 
  33    0   33  6   0  0 0.015 01.1  0.00487   +0.97360   +0.97164     -0.201315 
  34    0   34  6   0  0 0.015 01.1  0.00492   +0.98400   +0.99404     +1.020325 
  35    0   35  6   0  0 0.015 01.1  0.00490   +0.98072   +0.98612     +0.550616 
  36    0   36  6   0  0 0.015 01.1  0.00490   +0.98000   +0.97423     -0.588776 
  37    0   37  6   0  0 0.015 01.1  0.00495   +0.99038   +0.98658     -0.383691 
  38    0   38  6   0  0 0.015 01.1  0.00484   +0.96792   +0.95857     -0.965989 
  39    0   39  6   0  0 0.015 01.1  0.00486   +0.97191   +0.96779     -0.423908 
  40    0   40  6   0  0 0.015 01.1  0.00485   +0.97000   +0.96289     -0.732990 
  41    0   41  6   0  0 0.015 01.1  0.00484   +0.96840   +0.96504     -0.346964 
  42    0   42  6   0  0 0.015 01.1  0.00492   +0.98500   +0.97602     -0.911675 
  43    0   43  6   0  0 0.015 01.1  0.00472   +0.94421   +0.94273     -0.156745 
  44    0   44  6   0  0 0.015 01.1  0.00465   +0.93083   +0.91917     -1.252645 
  45    0   45  6   0  0 0.015 01.1  0.00468   +0.93613   +0.92942     -0.716781 
  46    0   46  6   0  0 0.015 01.1  0.00502   +1.00500   +1.00417     -0.082587 
  47    0   47  6   0  0 0.015 01.1  0.00462   +0.92510   +0.92323     -0.202140 
  48    0   48  6   0  0 0.015 01.1  0.00486   +0.97264   +0.95865     -1.438353 
  49    0   49  6   0  0 0.015 01.1  0.00495   +0.98963   +0.97949     -1.024625 
  50    0   50  6   0  0 0.015 01.1  0.00488   +0.97636   +0.98109     +0.484452 
  51    0   51  6   0  0 0.015 01.1  0.00479   +0.95795   +0.96039     +0.254711 
  52    0   52  6   0  0 0.015 01.1  0.00476   +0.95261   +0.94350     -0.956320 
  53    0   53  6   0  0 0.015 01.1  0.00473   +0.94658   +0.94230     -0.452154 
  54    0   54  6   0  0 0.015 01.1  0.00477   +0.95500   +0.95864     +0.381152 
  55    0   55  6   0  0 0.015 01.1  0.00476   +0.95200   +0.95234     +0.035714 
  56    0   56  6   0  0 0.015 01.1  0.00477   +0.95400   +0.96378     +1.025157 
  57    0   57  6   0  0 0.015 01.1  0.00480   +0.96089   +0.94943     -1.192644 
  58    0   58  6   0  0 0.015 01.1  0.00477   +0.95422   +0.96743     +1.384377 
  59    0   59  6   0  0 0.015 01.1  0.00492   +0.98500   +0.97478     -1.037563 
  60    0   60  6   0  0 0.015 01.1  0.00497   +0.99350   +1.00050     +0.704580 
  61    0   61  6   0  0 0.015 01.1  0.00498   +0.99500   +1.00970     +1.477387 
  62    0   62  6   0  0 0.015 01.1  0.00499   +0.99800   +0.99709     -0.091182 
  63    0   63  6   0  0 0.015 01.1  0.00487   +0.97312   +0.97207     -0.107900 
  64    0   64  6   0  0 0.015 01.1  0.00493   +0.98526   +0.98852     +0.330877 
  65    0   65  6   0  0 0.015 01.1  0.00501   +1.00267   +1.01650     +1.379317 
  66    0   66  6   0  0 0.015 01.1  0.00525   +1.05000   +1.04313     -0.654286 
  67    0   67  6   0  0 0.015 01.1  0.00511   +1.02174   +1.03502     +1.299744 
  68    0   68  6   0  0 0.015 01.1  0.00496   +0.99306   +0.98577     -0.734095 
  69    0   69  6   0  0 0.015 01.1  0.00517   +1.03500   +1.04376     +0.846377 
  70    0   70  6   0  0 0.015 01.1  0.00493   +0.98524   +0.97957     -0.575494 
  71    0   71  6   0  0 0.015 01.1  0.00493   +0.98614   +0.97937     -0.686515 
  72    0   72  6   0  0 0.015 01.1  0.00490   +0.98000   +0.96961     -1.060204 
  73    0   73  6   0  0 0.015 01.1  0.00496   +0.99100   +1.00537     +1.450050 
  74    0   74  6   0  0 0.015 01.1  0.00484   +0.96748   +0.95479     -1.311655 
  75    0   75  6   0  0 0.015 01.1  0.00487   +0.97501   +0.98224     +0.741531 
  76    0   76  6   0  0 0.015 01.1  0.00473   +0.94674   +0.94115     -0.590447 
  77    0   77  6   0  0 0.015 01.1  0.00503   +1.00600   +1.01163     +0.559642 
  78    0   78  6   0  0 0.015 01.1  0.00503   +1.00536   +1.00972     +0.433675 
  79    0   79  6   0  0 0.015 01.1  0.00506   +1.01164   +1.00006     -1.144676 
  80    0   80  6   0  0 0.015 01.1  0.00520   +1.04000   +1.03799     -0.193269 
  81    0   81  6   0  0 0.015 01.1  0.00495   +0.98960   +0.98307     -0.659863 
  82    0   82  6   0  0 0.015 01.1  0.00497   +0.99381   +0.98278     -1.109870 
  83    0   83  6   0  0 0.015 01.1  0.00495   +0.98914   +0.99045     +0.132438 
  84    0   84  6   0  0 0.015 01.1  0.00493   +0.98517   +0.98017     -0.507527 
  85    0   85  6   0  0 0.015 01.1  0.00495   +0.98989   +0.97695     -1.307216 
  86    0   86  6   0  0 0.015 01.1  0.00496   +0.99253   +0.98025     -1.237242 
  87    0   87  6   0  0 0.015 01.1  0.00507   +1.01500   +1.01224     -0.271921 
  88    0   88  6   0  0 0.015 01.1  0.00495   +0.99078   +0.99766     +0.694402 
  89    0   89  6   0  0 0.015 01.1  0.00502   +1.00500   +1.01539     +1.033831 
  90    0   90  6   0  0 0.015 01.1  0.00492   +0.98500   +0.98229     -0.275127 
  91    0   91  6   0  0 0.015 01.1  0.00490   +0.98000   +0.98583     +0.594898 
  92    0   92  6   0  0 0.015 01.1  0.00497   +0.99471   +0.99270     -0.202069 
  93    0   93  6   0  0 0.015 01.1  0.00495   +0.99079   +0.98239     -0.847808 
  94    0   94  6   0  0 0.015 01.1  0.00497   +0.99477   +1.00130     +0.656433 
  95    0   95  6   0  0 0.015 01.1  0.00494   +0.98753   +0.98488     -0.268346 
  96    0   96  6   0  0 0.015 01.1  0.00499   +0.99737   +1.00988     +1.254299 
  97    0   97  6   0  0 0.015 01.1  0.00507   +1.01501   +1.01942     +0.434478 
  98    0   98  6   0  0 0.015 01.1  0.00513   +1.02541   +1.02182     -0.350104 
  99    0   99  6   0  0 0.015 01.1  0.00505   +1.01000   +1.00562     -0.433663 
 100    0  100  6   0  0 0.015 01.1  0.00509   +1.01700   +1.00685     -0.998033 
 101    0  101  6   0  0 0.015 01.1  0.00498   +0.99667   +0.99896     +0.229765 
 102    0  102  6   0  0 0.015 01.1  0.00497   +0.99437   +1.00008     +0.574233 
 103    0  103  6   0  0 0.015 01.1  0.00502   +1.00456   +1.00780     +0.322529 
 104    0  104  6   0  0 0.015 01.1  0.00487   +0.97370   +0.98674     +1.339222 
 105    0  105  6   0  0 0.015 01.1  0.00485   +0.97085   +0.97835     +0.772519 
 106    0  106  6   0  0 0.015 01.1  0.00484   +0.96773   +0.95926     -0.875244 
 107    0  107  6   0  0 0.015 01.1  0.00476   +0.95200   +0.95523     +0.339286 
 108    0  108  6   0  0 0.015 01.1  0.00485   +0.97059   +0.97656     +0.615090 
 109    0  109  6   0  0 0.015 01.1  0.00485   +0.97064   +0.98094     +1.061156 
 110    0  110  6   0  0 0.015 01.1  0.00487   +0.97353   +0.97328     -0.025680 
 111    0  111  6   0  0 0.015 01.1  0.00490   +0.98000   +0.99065     +1.086735 
 112    0  112  6   0  0 0.015 01.1  0.00487   +0.97500   +0.98036     +0.549744 
 113    0  113  6   0  0 0.015 01.1  0.00496   +0.99300   +0.98174     -1.133938 
 114    0  114  6   0  0 0.015 01.1  0.00482   +0.96357   +0.97624     +1.314902 
 115    0  115  6   0  0 0.015 01.1  0.00482   +0.96331   +0.94906     -1.479275 
 116    0  116  6   0  0 0.015 01.1  0.00502   +1.00500   +0.99482     -1.012935 
 117    0  117  6   0  0 0.015 01.1  0.00489   +0.97789   +0.98175     +0.394727 
 118    0  118  6   0  0 0.015 01.1  0.00478   +0.95668   +0.94824     -0.882218 
 119    0    1  2   0  0 0.020 01.0  0.00442   -0.40300   -0.39818     -1.196030 
 120    0    2  2   0  0 0.020 01.0  0.00279   -0.15800   -0.15716     -0.531646 
 121    0    3  2   0  0 0.020 01.0  0.00379   -0.30800   -0.30157     -2.087662 
 122    0    4  2   0  0 0.020 01.0  0.00293   -0.18000   -0.18403     +2.238889 
 123    0    5  2   0  0 0.020 01.0  0.00173   +0.00000   -0.00261     +0.000000 
 124    0    6  2   0  0 0.020 01.0  0.00447   -0.41100   -0.39931     -2.844282 
 125    0    7  2   0  0 0.020 01.0  0.00273   -0.15000   -0.15574     +3.826667 
 126    0    8  2   0  0 0.020 01.0  0.00360   -0.28000   -0.28598     +2.135714 
 127    0    9  2   0  0 0.020 01.0  0.00173   +0.00000   +0.00072     +0.000000 
 128    0   10  2   0  0 0.020 01.0  0.01507   +2.00000   +2.01526     +0.763000 
 129    0   11  2   0  0 0.020 01.0  0.00542   -0.55300   -0.55997     +1.260398 
 130    0   12  2   0  0 0.020 01.0  0.01785   +2.41800   +2.42060     +0.107527 
 131    0   13  2   0  0 0.020 01.0  0.00353   -0.26900   -0.27492     +2.200743 
 132    0   14  2   0  0 0.020 01.0  0.00247   -0.11100   -0.11003     -0.873874 
 133    0   15  2   0  0 0.020 01.0  0.00647   -0.71100   -0.71625     +0.738397 
 134    0   16  2   0  0 0.020 01.0  0.00305   -0.19800   -0.19818     +0.090909 
 135    0   17  2   0  0 0.020 01.0  0.00231   -0.08700   -0.08784     +0.965517 
 136    0   18  2   0  0 0.020 01.0  0.00489   -0.47400   -0.46125     -2.689873 
 137    0   19  2   0  0 0.020 01.0  0.00411   -0.35600   -0.34504     -3.078652 
 138    0   20  2   0  0 0.020 01.0  0.00268   -0.14200   -0.13639     -3.950704 
 139    0   21  2   0  0 0.020 01.0  0.00247   -0.11100   -0.11691     +5.324324 
 140    0   22  2   0  0 0.020 01.0  0.00226   -0.07900   -0.07459     -5.582278 
 141    0   23  2   0  0 0.020 01.0  0.00210   -0.05500   -0.05768     +4.872727 
 142    0   24  2   0  0 0.020 01.0  0.00260   -0.13000   -0.12957     -0.330769 
 143    0   25  2   0  0 0.020 01.0  0.02173   +3.00000   +2.94823     -1.725667 
 144    0   26  2   0  0 0.020 01.0  0.02107   +2.90100   +2.89486     -0.211651 
 145    0   27  2   0  0 0.020 01.0  0.00560   -0.58000   -0.58666     +1.148276 
 146    0   28  2   0  0 0.020 01.0  0.00263   -0.13400   -0.13217     -1.365672 
 147    0   29  2   0  0 0.020 01.0  0.00300   -0.19000   -0.19254     +1.336842 
 148    0   30  2   0  0 0.020 01.0  0.00173   +0.00000   +0.00116     +0.000000 
 149    0   31  2   0  0 0.020 01.0  0.00447   +0.41000   +0.41946     +2.307317 
 150    0   32  2   0  0 0.020 01.0  0.00484   -0.46600   -0.45572     -2.206009 
 151    0   33  2   0  0 0.020 01.0  0.00295   -0.18200   -0.18118     -0.450549 
 152    0   34  2   0  0 0.020 01.0  0.00484   -0.46600   -0.46197     -0.864807 
 153    0   35  2   0  0 0.020 01.0  0.00347   -0.26100   -0.26484     +1.471264 
 154    0   36  2   0  0 0.020 01.0  0.00337   -0.24500   -0.25353     +3.481633 
 155    0   37  2   0  0 0.020 01.0  0.00173   +0.00000   -0.00508     +0.000000 
 156    0   38  2   0  0 0.020 01.0  0.00173   -0.00000   +0.00143     +0.000000 
 157    0   39  2   0  0 0.020 01.0  0.00315   -0.21300   -0.21336     +0.169014 
 158    0   40  2   0  0 0.020 01.0  0.00585   -0.61800   -0.63393     +2.577670 
 159    0   41  2   0  0 0.020 01.0  0.00368   -0.29200   -0.29088     -0.383562 
 160    0   42  2   0  0 0.020 01.0  0.00761   -0.88200   -0.88918     +0.814059 
 161    0   43  2   0  0 0.020 01.0  0.00268   -0.14200   -0.14971     +5.429577 
 162    0   44  2   0  0 0.020 01.0  0.00257   -0.12600   -0.12377     -1.769841 
 163    0   45  2   0  0 0.020 01.0  0.00453   -0.41900   -0.41765     -0.322196 
 164    0   46  2   0  0 0.020 01.0  0.05585   +8.11700   +8.08848     -0.351361 
 165    0   47  2   0  0 0.020 01.0  0.00353   -0.26900   -0.26255     -2.397770 
 166    0   48  2   0  0 0.020 01.0  0.00279   -0.15800   -0.16371     +3.613924 
 167    0   49  2   0  0 0.020 01.0  0.01182   +1.51300   +1.53088     +1.181758 
 168    0   50  2   0  0 0.020 01.0  0.00263   -0.13400   -0.13420     +0.149254 
 169    0   51  2   0  0 0.020 01.0  0.00263   -0.13400   -0.13526     +0.940299 
 170    0   52  2   0  0 0.020 01.0  0.00268   -0.14200   -0.13909     -2.049296 
 171    0   53  2   0  0 0.020 01.0  0.00295   -0.18200   -0.17326     -4.802198 
 172    0   54  2   0  0 0.020 01.0  0.03245   +4.60700   +4.70105     +2.041459 
 173    0   55  2   0  0 0.020 01.0  0.00505   -0.49800   -0.48290     -3.032129 
 174    0   56  2   0  0 0.020 01.0  0.00616   -0.66400   -0.66326     -0.111446 
 175    0   57  2   0  0 0.020 01.0  0.00237   -0.09500   -0.09266     -2.463158 
 176    0   58  2   0  0 0.020 01.0  0.00237   -0.09500   -0.09059     -4.642105 
 177    0   59  2   0  0 0.020 01.0  0.00515   +0.51200   +0.50358     -1.644531 
 178    0   60  2   0  0 0.020 01.0  0.00584   -0.61600   -0.61000     -0.974026 
 179    0   61  2   0  0 0.020 01.0  0.01240   +1.60000   +1.60138     +0.086250 
 180    0   62  2   0  0 0.020 01.0  0.00579   -0.60800   -0.61698     +1.476974 
 181    0   63  2   0  0 0.020 01.0  0.00173   -0.00000   -0.00064     +0.000000 
 182    0   64  2   0  0 0.020 01.0  0.00173   -0.00000   +0.00128     +0.000000 
 183    0   65  2   0  0 0.020 01.0  0.02780   +3.91000   +3.93724     +0.696675 
 184    0   66  2   0  0 0.020 01.0  0.02581   +3.61200   +3.63572     +0.656700 
 185    0   67  2   0  0 0.020 01.0  0.00321   -0.22100   -0.21293     -3.651584 
 186    0   68  2   0  0 0.020 01.0  0.00173   +0.00000   +0.00111     +0.000000 
 187    0   69  2   0  0 0.020 01.0  0.10349  -15.26350  -15.53859     +1.802273 
 188    0   70  2   0  0 0.020 01.0  0.00521   -0.52100   -0.52365     +0.508637 
 189    0   71  2   0  0 0.020 01.0  0.00173   +0.00000   -0.00028     +0.000000 
 190    0   72  2   0  0 0.020 01.0  0.00253   -0.12000   -0.12330     +2.750000 
 191    0   73  2   0  0 0.020 01.0  0.00213   -0.06000   -0.06293     +4.883333 
 192    0   74  2   0  0 0.020 01.0  0.00531   -0.53700   -0.53435     -0.493482 
 193    0   75  2   0  0 0.020 01.0  0.00421   -0.37100   -0.37011     -0.239892 
 194    0   76  2   0  0 0.020 01.0  0.00531   -0.53700   -0.54149     +0.836127 
 195    0   77  2   0  0 0.020 01.0  0.00495   -0.48200   -0.48057     -0.296680 
 196    0   78  2   0  0 0.020 01.0  0.00547   -0.56100   -0.57443     +2.393939 
 197    0   79  2   0  0 0.020 01.0  0.00379   -0.30800   -0.31284     +1.571429 
 198    0   80  2   0  0 0.020 01.0  0.02669   +3.74300   +3.74169     -0.034999 
 199    0   81  2   0  0 0.020 01.0  0.00173   +0.00000   +0.00062     +0.000000 
...
Número de medidores SCADA:     1098
Número de PMUs:                0
Número de medidas das PMUs:    0
----------------------------------------------------------------------------------

Não há medidas de ângulo.
Não há medidores desabilitados.
============================== Estado Estimado ===================================
                 Barra     Mod(pu)    Ang(graus)              
----------------------------------------------------------------------------------
                    1            0.9629             33.08        
                    2            0.9762             34.16        
                    3            0.9734             33.47        
                    4            0.9992             35.01        
                    5            1.0018             35.13        
                    6            0.9914             34.46        
                    7            0.9907             34.67        
                    8            1.0163             36.72        
                    9            1.0513             39.84        
                   10            1.0514             43.21        
                   11            0.9881             34.57        
                   12            0.9913             35.33        
                   13            0.9741             32.79        
                   14            0.9854             33.66        
                   15            0.9730             30.37        
                   16            0.9868             33.67        
                   17            0.9964             32.06        
                   18            0.9748             30.26        
                   19            0.9680             29.73        
                   20            0.9677             29.19        
                   21            0.9701             29.52        
                   22            0.9799             30.51        
                   23            1.0010             32.79        
                   24            0.9936             26.79        
                   25            1.0512             43.70        
                   26            1.0161             45.26        
                   27            0.9700             33.47        
                   28            0.9652             32.86        
                   29            0.9662             32.91        
                   30            0.9901             35.03        
                   31            0.9693             33.29        
                   32            0.9689             32.41        
                   33            0.9752             28.88        
                   34            0.9855             28.65        
                   35            0.9823             28.15        
                   36            0.9815             28.20        
                   37            0.9919             28.65        
                   38            0.9695             30.83        
                   39            0.9735             26.48        
                   40            0.9715             25.90        
                   41            0.9698             25.89        
                   42            0.9860             28.06        
                   43            0.9458             35.37        
                   44            0.9329             48.11        
                   45            0.9385             53.64        
                   46            1.0067             73.01        
                   47            0.9270             44.97        
                   48            0.9744             48.14        
                   49            0.9917             42.08        
                   50            0.9785             42.61        
                   51            0.9609             43.57        
                   52            0.9559             43.78        
                   53            0.9500             45.71        
                   54            0.9584             48.42        
                   55            0.9554             46.29        
                   56            0.9574             46.77        
                   57            0.9635             44.68        
                   58            0.9574             44.69        
                   59            0.9878             39.61        
                   60            0.9961             36.12        
                   61            0.9976             36.36        
                   62            1.0006             35.78        
                   63            0.9756             36.16        
                   64            0.9877             34.23        
                   65            1.0047             28.99        
                   66            1.0524             37.57        
                   67            1.0244             36.14        
                   68            0.9949             18.22        
                   69            1.0370              0.00        
                   70            0.9866              4.84        
                   71            0.9877              6.39        
                   72            0.9818             15.35        
                   73            0.9925              6.18        
                   74            0.9689              2.58        
                   75            0.9766              3.11        
                   76            0.9483              4.57        
                   77            1.0076             11.56        
                   78            1.0070             11.73        
                   79            1.0133             12.81        
                   80            1.0421             17.05        
                   81            0.9916             17.79        
                   82            0.9956             16.10        
                   83            0.9908             18.14        
                   84            0.9866             21.96        
                   85            0.9911             24.09        
                   86            0.9939             23.06        
                   87            1.0168             23.34        
                   88            0.9922             28.10        
                   89            1.0071             32.38        
                   90            0.9899             27.20        
                   91            0.9840             26.74        
                   92            0.9969             26.31        
                   93            0.9929             22.70        
                   94            0.9967             20.00        
                   95            0.9895             18.46        
                   96            0.9992             17.35        
                   97            1.0171             16.93        
                   98            1.0273             17.27        
                   99            1.0120             18.06        
                  100            1.0189             20.19        
                  101            0.9985             22.07        
                  102            0.9966             24.79        
                  103            1.0066             17.50        
                  104            0.9756             15.32        
                  105            0.9729             14.39        
                  106            0.9698             14.15        
                  107            0.9540             11.89        
                  108            0.9727             13.48        
                  109            0.9728             13.13        
                  110            0.9755             12.50        
                  111            0.9820             14.13        
                  112            0.9771              9.67        
                  113            0.9946             31.98        
                  114            0.9655             32.41        
                  115            0.9652             32.45        
                  116            1.0069             17.74        
                  117            0.9789             34.09        
                  118            0.9585              3.42        
----------------------------------------------------------------------------------
Convergiu em:    3 iteraçoes. 
----------------------------------------------------------------------------------
--- RESIDUOS NORMALIZADOS --------------------------------------------------------
   N    D    P  TP      Real     Medido   Estimado      Med-Est        rn 
----------------------------------------------------------------------------------
 495   89   92  1    +2.0290    +2.0665    +0.6564  +1.4101e+00     11.495 
 867   92   89  1    -1.9885    -2.0225    -0.6395  -1.3830e+00     11.369 
 849   80   77  1    +2.0429    +2.0049    +0.9872  +1.0176e+00      8.267 
 477   77   80  1    -1.9772    -1.9548    -0.9605  -9.9428e-01      8.191 
 864   90   89  1    -0.5215    -0.5258    -0.8837  +3.5793e-01      5.347 
 492   89   90  1    +0.5362    +0.5453    +0.9028  -3.5750e-01      5.321 
1053   92   89  4    +0.2661    +0.2652    +0.1094  +1.5580e-01      2.661 
 208    0   90  2    -1.4660    -1.4570    -1.2406  -2.1643e-01      2.316 
 210    0   92  2    -0.5140    -0.5075    -0.5795  +7.1984e-02      2.139 
 663   77   80  4    +0.0573    +0.0635    -0.0275  +9.1029e-02      2.013 
 869   92   91  1    +0.0493    +0.0545    -0.0247  +7.9242e-02      1.946 
 195    0   77  2    -0.4820    -0.4806    -0.5402  +5.9612e-02      1.875 
 497   91   92  1    -0.0488    -0.0499    +0.0252  -7.5073e-02      1.846 
 494   90   91  1    +0.0513    +0.0454    +0.1058  -6.0363e-02      1.535 
 493   89   90  1    +1.0204    +1.0260    +0.9028  +1.2319e-01      1.400 
 866   91   90  1    -0.0512    -0.0562    -0.1055  +4.9265e-02      1.251 
 198    0   80  2    +3.7430    +3.7417    +3.8948  -1.5314e-01      1.132 
 865   90   89  1    -0.9959    -0.9742    -0.8837  -9.0541e-02      1.036 
 313    0   77  5    -0.0139    -0.0147    +0.0014  -1.6042e-02      0.899 
 328    0   92  5    -0.1090    -0.1114    -0.0936  -1.7843e-02      0.739 
 681   89   92  4    -0.1147    -0.1167    -0.0832  -3.3540e-02      0.680 
 833   69   68  1    -9.2240    -9.1626    -9.3263  +1.6369e-01      0.679 
 211    0   93  2    -0.0950    -0.0919    -0.1089  +1.7001e-02      0.595 
1019   69   68  4    +0.7101    +0.6996    +0.7367  -3.7029e-02      0.593 
 218    0  100  2    +2.2280    +2.2585    +2.2014  +5.7104e-02      0.572 
 304    0   68  5    +0.0000    -0.0032    +0.0031  -6.3060e-03      0.525 
 186    0   68  2    +0.0000    +0.0011    +0.0060  -4.8905e-03      0.525 
 723   68  116  4    -3.1536    -3.1093    -3.1789  +6.9610e-02      0.518 
 172    0   54  2    +4.6070    +4.7011    +4.6225  +7.8557e-02      0.507 
 479   79   80  1    -1.0959    -1.0895    -1.1359  +4.6460e-02      0.503 
 209    0   91  2    -0.1000    -0.0985    -0.0803  -1.8209e-02      0.498 
 828   66   65  1    +4.5489    +4.4771    +4.5597  -8.2538e-02      0.495 
 187    0   69  2   -15.2635   -15.5386   -15.3955  -1.4307e-01      0.481 
 851   80   79  1    +1.1144    +1.1116    +1.1557  -4.4159e-02      0.475 
 326    0   90  5    +0.1150    +0.1078    +0.0902  +1.7644e-02      0.463 
 197    0   79  2    -0.3080    -0.3128    -0.3321  +1.9256e-02      0.460 
 848   79   78  1    +0.7879    +0.7696    +0.8038  -3.4253e-02      0.448 
 142    0   24  2    -0.1300    -0.1296    -0.1177  -1.1918e-02      0.445 
 212    0   94  2    -0.2370    -0.2387    -0.2528  +1.4109e-02      0.441 
 207    0   89  2    +6.0700    +6.0924    +6.0146  +7.7748e-02      0.441 
 861   88   85  1    +0.6369    +0.6230    +0.6548  -3.1830e-02      0.439 
 325    0   89  5    -0.2419    -0.2387    -0.2541  +1.5476e-02      0.434 
 480   68   81  1    +0.4027    +0.4083    +0.3839  +2.4400e-02      0.431 
 887  102   92  1    -0.4302    -0.4241    -0.4501  +2.6001e-02      0.425 
 644   65   68  4    +0.3663    +0.3615    +0.3796  -1.8187e-02      0.424 
 459   47   69  1    +2.4036    +2.3627    +2.4184  -5.5708e-02      0.422 
 329    0   93  5    -0.0550    -0.0599    -0.0470  -1.2889e-02      0.413 
 476   78   79  1    -0.7845    -0.7689    -0.8003  +3.1464e-02      0.412 
 490   85   89  1    -0.7994    -0.7878    -0.8211  +3.3306e-02      0.407 
 220    0  102  2    -0.0400    -0.0377    -0.0487  +1.0954e-02      0.405 
1035   80   77  4    +0.0809    +0.0801    +0.0990  -1.8928e-02      0.404 
 456   65   66  1    -4.5489    -4.6256    -4.5597  -6.5882e-02      0.395 
 458   65   68  1   +11.6583   +11.8413   +11.7357  +1.0558e-01      0.393 
 678   89   90  4    -0.0398    -0.0386    -0.0550  +1.6302e-02      0.390 
 183    0   65  2    +3.9100    +3.9372    +3.9808  -4.3544e-02      0.360 
 537   68  116  1    +1.8444    +1.8780    +1.8426  +3.5401e-02      0.354 
 451   64   65  1    +2.9359    +2.8920    +2.9399  -4.7861e-02      0.352 
1041   83   82  4    -0.3811    -0.3696    -0.3901  +2.0428e-02      0.349 
 862   89   85  1    +0.8152    +0.8095    +0.8377  -2.8134e-02      0.342 
 625   56   59  4    -0.2445    -0.2356    -0.2552  +1.9569e-02      0.341 
 484   83   84  1    -0.3755    -0.3635    -0.3846  +2.1111e-02      0.339 
 354    0  118  5    -0.1190    -0.1231    -0.1115  -1.1656e-02      0.338 
1016   68   65  4    +1.1690    +1.1464    +1.1735  -2.7080e-02      0.324 
 417   46   47  1    +3.5783    +3.6302    +3.5806  +4.9561e-02      0.319 
 284    0   48  5    -0.0870    -0.0838    -0.0920  +8.2186e-03      0.316 
 819   59   63  1    +1.5615    +1.5969    +1.5636  +3.3371e-02      0.316 
 474   75   77  1    -0.6832    -0.6660    -0.6904  +2.4464e-02      0.313 
 578   26   30  4    -0.1635    -0.1562    -0.1710  +1.4870e-02      0.313 
 847   78   77  1    +0.2235    +0.2249    +0.2107  +1.4216e-02      0.310 
 234    0  116  2    -1.8400    -1.8687    -1.8381  -3.0633e-02      0.307 
 636   38   65  4    -0.8523    -0.8339    -0.8586  +2.4748e-02      0.302 
 501   94   95  1    +0.6005    +0.5901    +0.6111  -2.1013e-02      0.300 
 499   92   94  1    +0.6223    +0.6208    +0.6431  -2.2316e-02      0.298 
 804   56   54  1    -2.5624    -2.5330    -2.5700  +3.6992e-02      0.298 
 790   48   46  1    -1.8886    -1.8564    -1.8914  +3.4941e-02      0.297 
 756   24   23  1    -1.9778    -1.9411    -1.9755  +3.4442e-02      0.296 
 418   46   48  1    +2.1685    +2.2077    +2.1710  +3.6707e-02      0.296 
 496   89   92  1    +0.6387    +0.6342    +0.6564  -2.2157e-02      0.291 
 548    8    5  4    +1.1684    +1.1482    +1.1742  -2.6009e-02      0.291 
 503   82   96  1    -0.3855    -0.3768    -0.3936  +1.6826e-02      0.286 
1095  116   68  4    +3.0427    +3.0308    +3.0677  -3.6961e-02      0.283 
 909  116   68  1    -1.8400    -1.8101    -1.8381  +2.7967e-02      0.280 
 253    0   17  5    -0.0240    -0.0197    -0.0252  +5.4907e-03      0.279 
 795   49   48  1    -1.6608    -1.6238    -1.6534  +2.9620e-02      0.279 
 385   23   25  1    -2.4842    -2.4370    -2.4729  +3.5877e-02      0.276 
 832   69   49  1    -1.6692    -1.6481    -1.6792  +3.1027e-02      0.275 
 482   77   82  1    -0.7542    -0.7516    -0.7729  +2.1286e-02      0.274 
1050   90   89  4    +0.0410    +0.0408    +0.0294  +1.1427e-02      0.272 
 831   69   47  1    -1.8330    -1.8747    -1.8432  -3.1477e-02      0.269 
 206    0   88  2    -0.3790    -0.3769    -0.3882  +1.1330e-02      0.269 
 805   56   55  1    +0.4967    +0.5108    +0.4942  +1.6577e-02      0.266 
 975   47   46  4    +1.1933    +1.1689    +1.1932  -2.4276e-02      0.263 
 196    0   78  2    -0.5610    -0.5744    -0.5897  +1.5251e-02      0.262 
 483   82   83  1    -0.8183    -0.8163    -0.8363  +2.0009e-02      0.262 
 734    5    8  1    -1.0724    -1.0495    -1.0716  +2.2084e-02      0.261 
1043   85   83  4    -0.1606    -0.1530    -0.1661  +1.3100e-02      0.258 
 987   54   49  4    -0.2082    -0.2005    -0.2147  +1.4180e-02      0.257 
 792   49   42  1    +0.7208    +0.7018    +0.7220  -2.0203e-02      0.255 
 478   77   80  1    -0.9324    -0.9382    -0.9605  +2.2354e-02      0.254 
 950   30   26  4    -0.3638    -0.3515    -0.3659  +1.4426e-02      0.247 
 486   84   85  1    -0.4748    -0.4708    -0.4867  +1.5954e-02      0.245 
1005   59   63  4    -0.6842    -0.6999    -0.6814  -1.8427e-02      0.245 
 413   43   44  1    -0.7118    -0.6963    -0.7152  +1.8870e-02      0.243 
 312    0   76  5    -0.3640    -0.3761    -0.3634  -1.2720e-02      0.242 
 591   38   37  4    +1.2573    +1.2864    +1.2634  +2.2934e-02      0.242 
 976   48   46  4    +0.8935    +0.8740    +0.8941  -2.0046e-02      0.241 
 352    0  116  5    +3.0427    +3.0992    +3.0677  +3.1439e-02      0.241 
 158    0   40  2    -0.6180    -0.6339    -0.6195  -1.4414e-02      0.239 
 115    0  115  6    +0.9633    +0.9491    +0.9652  -1.6136e-02      0.233 
 392   26   30  1    +2.1234    +2.0784    +2.1060  -2.7533e-02      0.232 
 362    8    5  1    +1.0724    +1.0911    +1.0716  +1.9516e-02      0.231 
1073  102   92  4    +0.0871    +0.0834    +0.0930  -9.5507e-03      0.231 
 809   58   51  1    +0.2051    +0.1960    +0.2076  -1.1641e-02      0.230 
 422   45   49  1    +0.8269    +0.8473    +0.8288  +1.8475e-02      0.230 
1007   61   64  4    -0.1696    -0.1767    -0.1661  -1.0602e-02      0.227 
  48    0   48  6    +0.9726    +0.9587    +0.9744  -1.5764e-02      0.227 
1051   90   89  4    +0.0410    +0.0389    +0.0294  +9.4965e-03      0.226 
 997   59   56  4    +0.2473    +0.2504    +0.2634  -1.2939e-02      0.226 
 194    0   76  2    -0.5370    -0.5415    -0.5550  +1.3508e-02      0.225 
1033   78   77  4    -0.1256    -0.1317    -0.1222  -9.5230e-03      0.224 
 384   23   24  1    +2.0350    +2.0061    +2.0324  -2.6269e-02      0.224 
  23    0   23  6    +0.9994    +0.9853    +1.0010  -1.5742e-02      0.223 
 421   42   49  1    -0.6826    -0.7013    -0.6839  -1.7335e-02      0.223 
 973   45   44  4    -0.1337    -0.1413    -0.1315  -9.8277e-03      0.221 
 738   12   11  1    +0.6492    +0.6391    +0.6539  -1.4773e-02      0.219 
 379   19   20  1    +0.0704    +0.0640    +0.0727  -8.7463e-03      0.219 
 902  111  110  1    +0.3600    +0.3688    +0.3570  +1.1834e-02      0.218 
 868   92   89  1    -0.6227    -0.6231    -0.6395  +1.6394e-02      0.217 
 301    0   65  5    +2.0000    +1.9756    +1.9964  -2.0860e-02      0.216 
 793   49   42  1    +0.7208    +0.7050    +0.7220  -1.7043e-02      0.215 
 996   59   54  4    +0.2721    +0.2827    +0.2701  +1.2573e-02      0.215 
 658   76   77  4    -0.1090    -0.1147    -0.1050  -9.7581e-03      0.214 
  14    0   14  6    +0.9838    +0.9705    +0.9854  -1.4892e-02      0.213 
 633   63   59  4    +0.7998    +0.7795    +0.7965  -1.6990e-02      0.213 
 149    0   31  2    +0.4100    +0.4195    +0.4085  +1.0919e-02      0.212 
 515   92  102  1    +0.4326    +0.4397    +0.4527  -1.2954e-02      0.212 
 889  103  100  1    -0.9034    -0.8827    -0.8993  +1.6664e-02      0.210 
 193    0   75  2    -0.3710    -0.3701    -0.3788  +8.7235e-03      0.209 
 670   83   84  4    +0.2107    +0.2061    +0.2173  -1.1166e-02      0.209 
 314    0   78  5    -0.2050    -0.2087    -0.1997  -8.9981e-03      0.208 
 319    0   83  5    -0.0790    -0.0793    -0.0731  -6.2228e-03      0.207 
1096  117   12  4    -0.0630    -0.0566    -0.0647  +8.1216e-03      0.207 
 137    0   19  2    -0.3560    -0.3450    -0.3543  +9.2185e-03      0.205 
 469   70   75  1    +0.2063    +0.1981    +0.2090  -1.0902e-02      0.205 
  74    0   74  6    +0.9675    +0.9548    +0.9689  -1.4128e-02      0.204 
  57    0   57  6    +0.9609    +0.9494    +0.9635  -1.4031e-02      0.203 
  85    0   85  6    +0.9899    +0.9769    +0.9911  -1.4189e-02      0.202 
  44    0   44  6    +0.9308    +0.9192    +0.9329  -1.3716e-02      0.202 
 840   74   70  1    -0.2916    -0.2835    -0.2952  +1.1675e-02      0.202 
 666   68   81  4    -0.2614    -0.2563    -0.2661  +9.7948e-03      0.200 
 388   27   28  1    +0.1253    +0.1321    +0.1230  +9.0662e-03      0.200 
 728    3    1  1    +0.2055    +0.1964    +0.2060  -9.6151e-03      0.198 
 506   80   98  1    -0.0037    +0.0010    -0.0059  +6.8959e-03      0.196 
1089  112  110  4    +0.2537    +0.2446    +0.2543  -9.6669e-03      0.196 
 562   16   17  4    -0.1041    -0.0970    -0.1063  +9.2832e-03      0.196 
 201    0   83  2    -0.1580    -0.1578    -0.1639  +6.1144e-03      0.196 
  86    0   86  6    +0.9925    +0.9802    +0.9939  -1.3648e-02      0.195 
 154    0   36  2    -0.2450    -0.2535    -0.2448  -8.7618e-03      0.194 
 993   57   50  4    -0.1889    -0.1974    -0.1874  -1.0028e-02      0.193 
 173    0   55  2    -0.4980    -0.4829    -0.4929  +1.0047e-02      0.189 
 311    0   75  5    -0.0870    -0.0924    -0.0875  -4.9471e-03      0.189 
 415   44   45  1    -0.8791    -0.8987    -0.8835  -1.5233e-02      0.187 
  79    0   79  6    +1.0116    +1.0001    +1.0133  -1.3222e-02      0.186 
 608   45   49  4    -0.4913    -0.5043    -0.4916  -1.2722e-02      0.186 
 903  112  110  1    -0.6280    -0.6127    -0.6251  +1.2399e-02      0.186 
 794   49   45  1    -0.7561    -0.7436    -0.7582  +1.4591e-02      0.186 
 222    0  104  2    -0.3000    -0.2930    -0.3010  +7.9708e-03      0.186 
 279    0   43  5    -0.0550    -0.0609    -0.0553  -5.6864e-03      0.186 
  59    0   59  6    +0.9850    +0.9748    +0.9878  -1.2994e-02      0.186 
 273    0   37  5    +0.0000    +0.0027    -0.0007  +3.3842e-03      0.185 
 755   23   22  1    +0.2653    +0.2733    +0.2633  +1.0077e-02      0.184 
 228    0  110  2    -0.3080    -0.3005    -0.3078  +7.3321e-03      0.184 
 166    0   48  2    -0.1580    -0.1637    -0.1688  +5.0697e-03      0.184 
 254    0   18  5    -0.1657    -0.1574    -0.1647  +7.2942e-03      0.184 
 113    0  113  6    +0.9930    +0.9817    +0.9946  -1.2888e-02      0.183 
  73    0   73  6    +0.9910    +1.0054    +0.9925  +1.2845e-02      0.183 
 982   50   49  4    -0.1994    -0.2082    -0.1992  -8.9961e-03      0.182 
  82    0   82  6    +0.9938    +0.9828    +0.9956  -1.2798e-02      0.182 
  20    0   20  6    +0.9660    +0.9551    +0.9677  -1.2593e-02      0.182 
  32    0   32  6    +0.9669    +0.9564    +0.9689  -1.2513e-02      0.181 
 883   97   96  1    -0.0481    -0.0489    -0.0415  -7.3596e-03      0.181 
 875   96   82  1    +0.3880    +0.3856    +0.3962  -1.0571e-02      0.180 
  52    0   52  6    +0.9526    +0.9435    +0.9559  -1.2356e-02      0.180 
 662   78   79  4    -0.0794    -0.0849    -0.0775  -7.3651e-03      0.180 
 246    0   10  5    -0.7807    -0.7671    -0.7806  +1.3465e-02      0.179 
 518  100  104  1    +0.4444    +0.4317    +0.4436  -1.1883e-02      0.179 
  16    0   16  6    +0.9855    +0.9993    +0.9868  +1.2479e-02      0.178 
 870   93   92  1    -0.6534    -0.6668    -0.6799  +1.3107e-02      0.177 
 563   17   18  4    +0.2663    +0.2747    +0.2650  +9.7036e-03      0.177 
 401   35   37  1    -0.2039    -0.1948    -0.2041  +9.3616e-03      0.177 
 691   80   97  4    +0.2504    +0.2409    +0.2505  -9.5780e-03      0.177 
 744   15   13  1    -0.1512    -0.1591    -0.1501  -8.9346e-03      0.177 
 571   23   25  4    +0.0499    +0.0553    +0.0485  +6.7605e-03      0.176 
 826   66   62  1    +0.1967    +0.1878    +0.1973  -9.4676e-03      0.176 
  72    0   72  6    +0.9800    +0.9696    +0.9818  -1.2220e-02      0.175 
 528  103  110  1    +0.4912    +0.5026    +0.4907  +1.1872e-02      0.175 
 531  110  112  1    +0.6403    +0.6489    +0.6373  +1.1616e-02      0.175 
 235    0  117  2    -0.1580    -0.1528    -0.1604  +7.6098e-03      0.175 
 491   88   89  1    -1.0159    -1.0283    -1.0431  +1.4780e-02      0.175 
...
Possível erro grosseiro no medidor 495!
Não foram identificadas medidas críticas.
Possíveis conjuntos críticos:
Conjunto 1: 1036 317
Conjunto 2: 445 54
Conjunto 3: 380 854
Conjunto 4: 1010 918
Conjunto 5: 248 371 984
Conjunto 6: 371 984
Conjunto 7: 26 703
Conjunto 8: 470 1065
Conjunto 9: 953 680
Conjunto 10: 1082 575
Conjunto 11: 575 205
Conjunto 12: 509 122
Conjunto 13: 122 711
Conjunto 14: 555 225 534
Conjunto 15: 225 534
Conjunto 16: 290 489
Conjunto 17: 489 624
Conjunto 18: 624 946
Conjunto 19: 946 761
Conjunto 20: 977 774
Conjunto 21: 217 355
Conjunto 22: 355 665
Conjunto 23: 557 155
Conjunto 24: 1012 177 552
Conjunto 25: 177 552 729
Conjunto 26: 552 729
Conjunto 27: 652 289
Conjunto 28: 103 965
Conjunto 29: 589 891 823
Conjunto 30: 891 823
Conjunto 31: 134 1048
Conjunto 32: 876 796
Conjunto 33: 1056 610
Conjunto 34: 610 107
Conjunto 35: 448 536 1071 374
Conjunto 36: 536 1071 374
Conjunto 37: 1071 374
Conjunto 38: 708 420 626
Conjunto 39: 420 626
Conjunto 40: 597 743
Conjunto 41: 188 967 232 407
Conjunto 42: 967 232 407
Conjunto 43: 232 407
Conjunto 44: 407 441 798
Conjunto 45: 441 798
Conjunto 46: 156 283 1097
Conjunto 47: 283 1097
Conjunto 48: 544 266
Conjunto 49: 266 874
Conjunto 50: 874 240
Conjunto 51: 240 125
Conjunto 52: 335 784 249
Conjunto 53: 784 249
Conjunto 54: 249 712 707
Conjunto 55: 712 707 302 91
Conjunto 56: 707 302 91
Conjunto 57: 302 91
Conjunto 58: 764 340
Conjunto 59: 340 697
Conjunto 60: 697 974 146
Conjunto 61: 974 146
Conjunto 62: 1060 1079 485
Conjunto 63: 1079 485
Conjunto 64: 485 968
Conjunto 65: 566 132 144
Conjunto 66: 132 144 879
Conjunto 67: 144 879 295
Conjunto 68: 879 295 318
Conjunto 69: 295 318 603 151
Conjunto 70: 318 603 151 1003 13
Conjunto 71: 603 151 1003 13
Conjunto 72: 151 1003 13
Conjunto 73: 1003 13 776
Conjunto 74: 13 776
Conjunto 75: 776 836 202
Conjunto 76: 836 202 690 169
Conjunto 77: 202 690 169 701
Conjunto 78: 690 169 701
Conjunto 79: 169 701 148
Conjunto 80: 701 148 243 502
Conjunto 81: 148 243 502
Conjunto 82: 243 502 527
Conjunto 83: 502 527 914
Conjunto 84: 527 914 259 309
Conjunto 85: 914 259 309 668 530 765
Conjunto 86: 259 309 668 530 765
Conjunto 87: 309 668 530 765
Conjunto 88: 668 530 765
Conjunto 89: 530 765
Conjunto 90: 342 199 721 523
Conjunto 91: 199 721 523 110
Conjunto 92: 721 523 110 856
Conjunto 93: 523 110 856
Conjunto 94: 110 856
Conjunto 95: 820 276 927
Conjunto 96: 276 927
Conjunto 97: 749 457 807
Conjunto 98: 457 807 588
Conjunto 99: 807 588
Conjunto 100: 588 233 97 587 783 175
Conjunto 101: 233 97 587 783 175 706 241
Conjunto 102: 97 587 783 175 706 241
Conjunto 103: 587 783 175 706 241 221
Conjunto 104: 783 175 706 241 221
Conjunto 105: 175 706 241 221
Conjunto 106: 706 241 221
Conjunto 107: 241 221
Conjunto 108: 221 671
Conjunto 109: 671 152
Conjunto 110: 152 661 886
Conjunto 111: 661 886 402 213 227
Conjunto 112: 886 402 213 227
Conjunto 113: 402 213 227
Conjunto 114: 213 227
Conjunto 115: 718 757 606
Conjunto 116: 757 606 46 424 298
Conjunto 117: 606 46 424 298
Conjunto 118: 46 424 298 11 598 331
Conjunto 119: 424 298 11 598 331
Conjunto 120: 298 11 598 331
Conjunto 121: 11 598 331
Conjunto 122: 598 331
Conjunto 123: 331 763
Conjunto 124: 763 1028 278 604
Conjunto 125: 1028 278 604 521 524 1059
Conjunto 126: 278 604 521 524 1059
Conjunto 127: 604 521 524 1059
Conjunto 128: 521 524 1059
Conjunto 129: 524 1059
Conjunto 130: 989 514 929
Conjunto 131: 514 929
Conjunto 132: 1074 553 689 117
Conjunto 133: 553 689 117 306
Conjunto 134: 689 117 306 613
Conjunto 135: 117 306 613
Conjunto 136: 306 613 446
Conjunto 137: 613 446 1008
Conjunto 138: 446 1008
Conjunto 139: 179 178 320 1087 572 1064
Conjunto 140: 178 320 1087 572 1064 699 631
Conjunto 141: 320 1087 572 1064 699 631 943 12
Conjunto 142: 1087 572 1064 699 631 943 12 297
Conjunto 143: 572 1064 699 631 943 12 297 908
Conjunto 144: 1064 699 631 943 12 297 908 159
Conjunto 145: 699 631 943 12 297 908 159
Conjunto 146: 631 943 12 297 908 159
Conjunto 147: 943 12 297 908 159 182
Conjunto 148: 12 297 908 159 182
Conjunto 149: 297 908 159 182
Conjunto 150: 908 159 182 336 719
Conjunto 151: 159 182 336 719
Conjunto 152: 182 336 719 607
Conjunto 153: 336 719 607
Conjunto 154: 719 607
Conjunto 155: 607 940 245
Conjunto 156: 940 245 983 962
Conjunto 157: 245 983 962
Conjunto 158: 983 962
Conjunto 159: 962 55
Conjunto 160: 986 961 43
Conjunto 161: 961 43
Conjunto 162: 863 621 1027 822 702
Conjunto 163: 621 1027 822 702
Conjunto 164: 1027 822 702 337 511 657
Conjunto 165: 822 702 337 511 657
Conjunto 166: 702 337 511 657
Conjunto 167: 337 511 657 772
Conjunto 168: 511 657 772
Conjunto 169: 657 772 256
Conjunto 170: 772 256 184
Conjunto 171: 256 184 386
Conjunto 172: 184 386 878
Conjunto 173: 386 878
Conjunto 174: 878 540 112 922 264
Conjunto 175: 540 112 922 264 391 1076 160
Conjunto 176: 112 922 264 391 1076 160
Conjunto 177: 922 264 391 1076 160 1088 1042
Conjunto 178: 264 391 1076 160 1088 1042
Conjunto 179: 391 1076 160 1088 1042
Conjunto 180: 1076 160 1088 1042
Conjunto 181: 160 1088 1042
Conjunto 182: 1088 1042
Conjunto 183: 465 15 817 1037 341 778
Conjunto 184: 15 817 1037 341 778 760
Conjunto 185: 817 1037 341 778 760
Conjunto 186: 1037 341 778 760 62 390 741 190
Conjunto 187: 341 778 760 62 390 741 190
Conjunto 188: 778 760 62 390 741 190
Conjunto 189: 760 62 390 741 190 471
Conjunto 190: 62 390 741 190 471 102 427 992 435 656
Conjunto 191: 390 741 190 471 102 427 992 435 656
Conjunto 192: 741 190 471 102 427 992 435 656
Conjunto 193: 190 471 102 427 992 435 656
Conjunto 194: 471 102 427 992 435 656
Conjunto 195: 102 427 992 435 656
Conjunto 196: 427 992 435 656
Conjunto 197: 992 435 656
Conjunto 198: 435 656
Conjunto 199: 656 920
Conjunto 200: 920 414 63 135 296 404 33 835
...
